3
S             0.6666511016        0.3333108083        0.6565586833
S             0.6666511016        0.3333108083        0.3434413167
Mo            0.3333177967        0.6666443834        0.5000000000


S 1.5905260315876495465	0.9182342920325894154  6.565586833
S 1.5905260315876495465	0.9182342920325894154  3.434413167
Mo 0.0000142401699290626 1.8365313040729291692 5.000000000000


S 3.1810662685876494	-1.8366547459674105  3.131173666
S 3.1810662685876494	-1.8366547459674105  0
Mo 1.590540237 -0.9183577339270708 1.5655868329999998
